Circuit: * C:\Users\Seb\Desktop\formant_vco\vco_ltspice_tests\test_with.asc

Direct Newton iteration for .op point succeeded.
Ignoring empty pin current: Ix(u1:1)
Ignoring empty pin current: Ix(u1:2)
Ignoring empty pin current: Ix(u1:1)
Ignoring empty pin current: Ix(u1:2)
.step itune=1e-007
.step itune=2e-007
.step itune=4e-007
.step itune=8e-007
.step itune=1.6e-006
.step itune=3.2e-006
.step itune=6.4e-006
.step itune=1.28e-005
.step itune=2e-005

Date: Sun Jul 09 14:47:42 2017
Total elapsed time: 3.522 seconds.

tnom = 27
temp = 27
method = modified trap
totiter = 201270
traniter = 201242
tranpoints = 63013
accept = 43164
rejected = 19849
matrix size = 22
fillins = 4
solver = Normal
Matrix Compiler1: 1.58 KB object code size  0.9/0.2/[0.2]
Matrix Compiler2: off  [0.1]/0.5/0.3

